
  ACD/Labs02131909433D

 49 50  0  0  0  0  0  0  0  0  1 V2000
   32.0434  -16.1269    0.0000 C   0  0  0  0  0  0  0  0  0  0  0  0
   32.0434  -17.3972    0.0000 C   0  0  0  0  0  0  0  0  0  0  0  0
   30.9414  -15.4994    0.0000 C   0  0  0  0  0  0  0  0  0  0  0  0
   33.1454  -15.4994    0.0000 O   0  0  0  0  0  0  0  0  0  0  0  0
   30.9414  -18.0400    0.0000 O   0  0  0  0  0  0  0  0  0  0  0  0
   30.9414  -14.2290    0.0000 O   0  0  0  0  0  0  0  0  0  0  0  0
   29.8495  -17.3614    0.0000 C   0  0  0  0  0  0  0  0  0  0  0  0
   29.8547  -13.5862    0.0000 C   0  0  0  0  0  0  0  0  0  0  0  0
   28.7502  -18.0087    0.0000 C   0  0  0  0  0  0  0  0  0  0  0  0
   29.8547  -16.1269    0.0000 O   0  0  0  0  0  0  0  0  0  0  0  0
   28.7528  -14.2290    0.0000 C   0  0  0  0  0  0  0  0  0  0  0  0
   29.8547  -12.3159    0.0000 O   0  0  0  0  0  0  0  0  0  0  0  0
   27.6456  -17.3703    0.0000 C   0  0  0  0  0  0  0  0  0  0  0  0
   27.6508  -13.5862    0.0000 C   0  0  0  0  0  0  0  0  0  0  0  0
   26.5462  -18.0176    0.0000 C   0  0  0  0  0  0  0  0  0  0  0  0
   26.5488  -14.2290    0.0000 C   0  0  0  0  0  0  0  0  0  0  0  0
   25.4416  -17.3793    0.0000 C   0  0  0  0  0  0  0  0  0  0  0  0
   25.4468  -13.5862    0.0000 C   0  0  0  0  0  0  0  0  0  0  0  0
   24.3423  -18.0266    0.0000 C   0  0  0  0  0  0  0  0  0  0  0  0
   24.3449  -14.2290    0.0000 C   0  0  0  0  0  0  0  0  0  0  0  0
   23.2377  -17.3883    0.0000 C   0  0  0  0  0  0  0  0  0  0  0  0
   23.2429  -13.5862    0.0000 C   0  0  0  0  0  0  0  0  0  0  0  0
   22.1384  -18.0356    0.0000 C   0  0  0  0  0  0  0  0  0  0  0  0
   22.1409  -14.2290    0.0000 C   0  0  0  0  0  0  0  0  0  0  0  0
   22.1435  -19.3059    0.0000 C   0  0  0  0  0  0  0  0  0  0  0  0
   21.0950  -13.7728    0.0000 C   0  0  0  0  0  0  0  0  0  0  0  0
   21.0441  -19.9379    0.0000 C   0  0  0  0  0  0  0  0  0  0  0  0
   20.0243  -14.3429    0.0000 C   0  0  0  0  0  0  0  0  0  0  0  0
   19.9549  -19.3148    0.0000 C   0  0  0  0  0  0  0  0  0  0  0  0
   19.7902  -15.3658    0.0000 C   0  0  0  0  0  0  0  0  0  0  0  0
   18.8555  -19.9468    0.0000 C   0  0  0  0  0  0  0  0  0  0  0  0
   18.8503  -16.1269    0.0000 C   0  0  0  0  0  0  0  0  0  0  0  0
   17.7510  -19.3238    0.0000 C   0  0  0  0  0  0  0  0  0  0  0  0
   17.7483  -15.4994    0.0000 C   0  0  0  0  0  0  0  0  0  0  0  0
   16.6515  -19.9558    0.0000 C   0  0  0  0  0  0  0  0  0  0  0  0
   16.6463  -16.1269    0.0000 C   0  0  0  0  0  0  0  0  0  0  0  0
   15.5470  -19.3327    0.0000 C   0  0  0  0  0  0  0  0  0  0  0  0
   15.5444  -15.4994    0.0000 C   0  0  0  0  0  0  0  0  0  0  0  0
   14.4476  -19.9647    0.0000 C   0  0  0  0  0  0  0  0  0  0  0  0
   14.4424  -16.1269    0.0000 C   0  0  0  0  0  0  0  0  0  0  0  0
   13.3431  -19.3417    0.0000 C   0  0  0  0  0  0  0  0  0  0  0  0
   13.3404  -15.4994    0.0000 C   0  0  0  0  0  0  0  0  0  0  0  0
   12.2437  -19.9737    0.0000 C   0  0  0  0  0  0  0  0  0  0  0  0
   12.2384  -16.1269    0.0000 C   0  0  0  0  0  0  0  0  0  0  0  0
   34.1742  -14.9675    0.5165 C   0  0  0  0  0  0  0  0  0  0  0  0
   34.1729  -13.7189    0.7695 O   0  0  0  0  0  0  0  0  0  0  0  0
   35.1678  -15.6686    0.7688 C   0  0  0  0  0  0  0  0  0  0  0  0
   22.3345  -16.8881    0.0000 O   0  0  0  0  0  0  0  0  0  0  0  0
   20.3155  -13.2701    0.0000 O   0  0  0  0  0  0  0  0  0  0  0  0
  2  1  1  0  0  0  0
  3  1  1  0  0  0  0
  4  1  1  0  0  0  0
  5  2  1  0  0  0  0
  6  3  1  0  0  0  0
  7  5  1  0  0  0  0
  8  6  1  0  0  0  0
  9  7  1  0  0  0  0
 10  7  2  0  0  0  0
 11  8  1  0  0  0  0
 12  8  2  0  0  0  0
 13  9  1  0  0  0  0
 14 11  1  0  0  0  0
 15 13  1  0  0  0  0
 16 14  1  0  0  0  0
 17 15  1  0  0  0  0
 18 16  1  0  0  0  0
 19 17  1  0  0  0  0
 20 18  1  0  0  0  0
 21 19  1  0  0  0  0
 22 20  1  0  0  0  0
 23 21  1  0  0  0  0
 24 22  1  0  0  0  0
 25 23  1  0  0  0  0
 26 24  1  0  0  0  0
 27 25  1  0  0  0  0
 28 26  1  0  0  0  0
 29 27  1  0  0  0  0
 30 28  1  0  0  0  0
 31 29  1  0  0  0  0
 32 30  1  0  0  0  0
 33 31  1  0  0  0  0
 34 32  1  0  0  0  0
 35 33  1  0  0  0  0
 36 34  1  0  0  0  0
 37 35  1  0  0  0  0
 38 36  1  0  0  0  0
 39 37  1  0  0  0  0
 40 38  1  0  0  0  0
 41 39  1  0  0  0  0
 42 40  1  0  0  0  0
 43 41  1  0  0  0  0
 44 42  1  0  0  0  0
 46 45  2  0  0  0  0
  4 45  1  0  0  0  0
 47 45  1  0  0  0  0
 23 48  1  0  0  0  0
 21 48  1  0  0  0  0
 28 49  1  0  0  0  0
 26 49  1  0  0  0  0
M  END
